15
H8 C7
C -0.984612 0.000163 0.014830
C -0.270650 1.195597 0.011653
C -0.270798 -1.195337 0.010052
C -2.488953 0.000108 -0.002093
C 1.117118 1.198581 -0.001608
C 1.116957 -1.198632 -0.002841
C 1.816634 -0.000078 -0.010182
H -0.809924 2.135277 0.022707
H -0.810214 -2.134972 0.020237
H -2.888568 -0.880617 0.498531
H -2.888737 0.885078 0.490855
H -2.864355 -0.004536 -1.026829
H 1.652616 2.138815 -0.002050
H 1.652252 -2.138983 -0.003587
H 2.898133 -0.000164 -0.017475