13
H8 C4 O1
C 0.741332 2.117653 1.407777
C 1.893667 3.049791 1.036298
C 3.098124 2.139956 1.256255
O 2.655667 0.819485 0.961776
C 1.238012 0.791402 0.842854
H 0.641873 2.054622 2.492302
H -0.216641 2.420182 0.989685
H 1.821281 3.336523 -0.013719
H 1.934790 3.954421 1.639420
H 3.942117 2.379091 0.609359
H 3.435426 2.182677 2.296453
H 0.965393 0.690877 -0.212497
H 0.859259 -0.076681 1.382035